nrt/data/HVDC_TwoAreasRegulated/HVDC_TwoAreasRegulated.iidm
<?xml version="1.0" encoding="UTF-8"?>
<iidm:network xmlns:iidm="http://www.powsybl.org/schema/iidm/1_5" id="HVDC_TwoAreasRegulated" caseDate="2024-01-01T00:00:00.000+01:00" forecastDistance="0" sourceFormat="IIDM">
    <iidm:substation id="SUB_A_1" country="FR" tso="TSO_A">
        <iidm:voltageLevel id="VL_A_HV1" nominalV="400.0" topologyKind="BUS_BREAKER">
            <iidm:busBreakerTopology>
                <iidm:bus id="A_HV1" v="400.0" angle="0.0"/>
            </iidm:busBreakerTopology>
            <iidm:generator id="GEN_A1" energySource="OTHER" minP="0.0" maxP="1090.0" voltageRegulatorOn="true" targetP="800.0" targetV="400.0" targetQ="0.0" bus="A_HV1" connectableBus="A_HV1" p="-794.1750578159771" q="5.203704148039493">
                <iidm:minMaxReactiveLimits minQ="-600.0" maxQ="600.0"/>
            </iidm:generator>
            <iidm:vscConverterStation id="VSC_A1" name="VSC_A1" voltageRegulatorOn="true" lossFactor="1.1" voltageSetpoint="400.0" reactivePowerSetpoint="0.0" bus="A_HV1" connectableBus="A_HV1" p="60.0" q="1.3009260370098732">
                <iidm:minMaxReactiveLimits minQ="-150.0" maxQ="150.0"/>
            </iidm:vscConverterStation>
        </iidm:voltageLevel>
        <iidm:voltageLevel id="VL_A_LD1" nominalV="130.0" topologyKind="BUS_BREAKER">
            <iidm:busBreakerTopology>
                <iidm:bus id="A_LD1" v="128.30270118156994" angle="-3.592065970523119"/>
            </iidm:busBreakerTopology>
            <iidm:load id="LOAD_A1" loadType="UNDEFINED" p0="350.0" q0="50.0" bus="A_LD1" connectableBus="A_LD1" p="350.0" q="50.0"/>
        </iidm:voltageLevel>
        <iidm:twoWindingsTransformer id="T_LA1" r="0.1" x="3.0" g="0.0" b="0.0" ratedU1="400.0" ratedU2="130.0" voltageLevelId1="VL_A_HV1" bus1="A_HV1" connectableBus1="A_HV1" voltageLevelId2="VL_A_LD1" bus2="A_LD1" connectableBus2="A_LD1" p1="350.7593436679066" q1="72.78031186156824" p2="-349.9999999343856" q2="-49.999999855945276"/>
    </iidm:substation>
    <iidm:substation id="SUB_A_2" country="FR" tso="TSO_A">
        <iidm:voltageLevel id="VL_A_HV2" nominalV="400.0" topologyKind="BUS_BREAKER">
            <iidm:busBreakerTopology>
                <iidm:bus id="A_HV2" v="400.0" angle="-1.8985511388433636"/>
            </iidm:busBreakerTopology>
            <iidm:generator id="GEN_A2" energySource="OTHER" minP="0.0" maxP="228.0" voltageRegulatorOn="true" targetP="160.0" targetV="400.0" targetQ="0.0" bus="A_HV2" connectableBus="A_HV2" p="-158.78157172664476" q="-25.81233415262716">
                <iidm:minMaxReactiveLimits minQ="-120.0" maxQ="120.0"/>
            </iidm:generator>
        </iidm:voltageLevel>
        <iidm:voltageLevel id="VL_A_LD2" nominalV="130.0" topologyKind="BUS_BREAKER">
            <iidm:busBreakerTopology>
                <iidm:bus id="A_LD2" v="128.64731774435384" angle="-4.969655201440232"/>
            </iidm:busBreakerTopology>
            <iidm:load id="LOAD_A2" loadType="UNDEFINED" p0="300.0" q0="40.0" bus="A_LD2" connectableBus="A_LD2" p="300.0" q="40.0"/>
        </iidm:voltageLevel>
        <iidm:twoWindingsTransformer id="T_LA2" r="0.1" x="3.0" g="0.0" b="0.0" ratedU1="400.0" ratedU2="130.0" voltageLevelId1="VL_A_HV2" bus1="A_HV2" connectableBus1="A_HV2" voltageLevelId2="VL_A_LD2" bus2="A_LD2" connectableBus2="A_LD2" p1="300.55346987715853" q1="56.604096770914225" p2="-299.99999998351075" q2="-39.99999996148519"/>
    </iidm:substation>
    <iidm:substation id="SUB_A_3" country="FR" tso="TSO_A">
        <iidm:voltageLevel id="VL_A_HV3" nominalV="400.0" topologyKind="BUS_BREAKER">
            <iidm:busBreakerTopology>
                <iidm:bus id="A_HV3" v="400.0" angle="-2.255220894283915"/>
            </iidm:busBreakerTopology>
            <iidm:vscConverterStation id="VSC_A2" name="VSC_A2" voltageRegulatorOn="true" lossFactor="1.1" voltageSetpoint="400.0" reactivePowerSetpoint="0.0" bus="A_HV3" connectableBus="A_HV3" p="40.0" q="-17.62468197951108">
                <iidm:minMaxReactiveLimits minQ="-150.0" maxQ="150.0"/>
            </iidm:vscConverterStation>
        </iidm:voltageLevel>
        <iidm:voltageLevel id="VL_A_LD3" nominalV="130.0" topologyKind="BUS_BREAKER">
            <iidm:busBreakerTopology>
                <iidm:bus id="A_LD3" v="129.0654012284264" angle="-4.294306485991389"/>
            </iidm:busBreakerTopology>
            <iidm:load id="LOAD_A3" loadType="UNDEFINED" p0="200.0" q0="30.0" bus="A_LD3" connectableBus="A_LD3" p="200.0" q="30.0"/>
        </iidm:voltageLevel>
        <iidm:twoWindingsTransformer id="T_LA3" r="0.1" x="3.0" g="0.0" b="0.0" ratedU1="400.0" ratedU2="130.0" voltageLevelId1="VL_A_HV3" bus1="A_HV3" connectableBus1="A_HV3" voltageLevelId2="VL_A_LD3" bus2="A_LD3" connectableBus2="A_LD3" p1="200.24552947501215" q1="37.36588426745868" p2="-199.9999999993798" q2="-29.999999998497508"/>
    </iidm:substation>
    <iidm:substation id="SUB_B_1" country="FR" tso="TSO_B">
        <iidm:voltageLevel id="VL_B_HV1" nominalV="400.0" topologyKind="BUS_BREAKER">
            <iidm:busBreakerTopology>
                <iidm:bus id="B_HV1" v="400.0" angle="0.0"/>
            </iidm:busBreakerTopology>
            <iidm:generator id="GEN_B1" energySource="OTHER" minP="0.0" maxP="1090.0" voltageRegulatorOn="true" targetP="400.0" targetV="400.0" targetQ="0.0" bus="B_HV1" connectableBus="B_HV1" p="-402.60783928122424" q="-31.894032609393435">
                <iidm:minMaxReactiveLimits minQ="-600.0" maxQ="600.0"/>
            </iidm:generator>
            <iidm:vscConverterStation id="VSC_B1" name="VSC_B1" voltageRegulatorOn="true" lossFactor="1.1" voltageSetpoint="400.0" reactivePowerSetpoint="0.0" bus="B_HV1" connectableBus="B_HV1" p="-58.68385909083935" q="-7.973508152348359">
                <iidm:minMaxReactiveLimits minQ="-150.0" maxQ="150.0"/>
            </iidm:vscConverterStation>
        </iidm:voltageLevel>
        <iidm:voltageLevel id="VL_B_LD1" nominalV="130.0" topologyKind="BUS_BREAKER">
            <iidm:busBreakerTopology>
                <iidm:bus id="B_LD1" v="128.68750785414034" angle="-2.8643763946744176"/>
            </iidm:busBreakerTopology>
            <iidm:load id="LOAD_B1" loadType="UNDEFINED" p0="280.0" q0="40.0" bus="B_LD1" connectableBus="B_LD1" p="280.0" q="40.0"/>
        </iidm:voltageLevel>
        <iidm:voltageLevel id="VL_B_LD3" nominalV="130.0" topologyKind="BUS_BREAKER">
            <iidm:busBreakerTopology>
                <iidm:bus id="B_LD3" v="129.5550507493831" angle="-1.0155282428116297"/>
            </iidm:busBreakerTopology>
            <iidm:load id="LOAD_B3" loadType="UNDEFINED" p0="100.0" q0="15.0" bus="B_LD3" connectableBus="B_LD3" p="100.0" q="15.0"/>
        </iidm:voltageLevel>
        <iidm:twoWindingsTransformer id="T_LB1" r="0.1" x="3.0" g="0.0" b="0.0" ratedU1="400.0" ratedU2="130.0" voltageLevelId1="VL_B_HV1" bus1="B_HV1" connectableBus1="B_HV1" voltageLevelId2="VL_B_LD1" bus2="B_LD1" connectableBus2="B_LD1" p1="280.4830779305326" q1="54.492338189002965" p2="-279.99999999013806" q2="-39.99999997716407"/>
        <iidm:twoWindingsTransformer id="T_LB3" r="0.1" x="3.0" g="0.0" b="0.0" ratedU1="400.0" ratedU2="130.0" voltageLevelId1="VL_B_HV1" bus1="B_HV1" connectableBus1="B_HV1" voltageLevelId2="VL_B_LD3" bus2="B_LD3" connectableBus2="B_LD3" p1="100.06091925998457" q1="16.827577799595872" p2="-99.99999999999791" q2="-14.99999999999481"/>
    </iidm:substation>
    <iidm:substation id="SUB_B_2" country="FR" tso="TSO_B">
        <iidm:voltageLevel id="VL_B_HV2" nominalV="400.0" topologyKind="BUS_BREAKER">
            <iidm:busBreakerTopology>
                <iidm:bus id="B_HV2" v="400.0" angle="-0.8755403492200884"/>
            </iidm:busBreakerTopology>
            <iidm:generator id="GEN_B2" energySource="OTHER" minP="0.0" maxP="228.0" voltageRegulatorOn="true" targetP="100.0" targetV="400.0" targetQ="0.0" bus="B_HV2" connectableBus="B_HV2" p="-100.54549298726525" q="-10.474958737859511">
                <iidm:minMaxReactiveLimits minQ="-120.0" maxQ="120.0"/>
            </iidm:generator>
            <iidm:vscConverterStation id="VSC_B2" name="VSC_B2" voltageRegulatorOn="true" lossFactor="1.1" voltageSetpoint="400.0" reactivePowerSetpoint="0.0" bus="B_HV2" connectableBus="B_HV2" p="-39.123328478529594" q="-13.093698422324387">
                <iidm:minMaxReactiveLimits minQ="-150.0" maxQ="150.0"/>
            </iidm:vscConverterStation>
        </iidm:voltageLevel>
        <iidm:voltageLevel id="VL_B_LD2" nominalV="130.0" topologyKind="BUS_BREAKER">
            <iidm:busBreakerTopology>
                <iidm:bus id="B_LD2" v="129.03224656340961" angle="-3.1202361477230576"/>
            </iidm:busBreakerTopology>
            <iidm:load id="LOAD_B2" loadType="UNDEFINED" p0="220.0" q0="30.0" bus="B_LD2" connectableBus="B_LD2" p="220.0" q="30.0"/>
        </iidm:voltageLevel>
        <iidm:twoWindingsTransformer id="T_LB2" r="0.1" x="3.0" g="0.0" b="0.0" ratedU1="400.0" ratedU2="130.0" voltageLevelId1="VL_B_HV2" bus1="B_HV2" connectableBus1="B_HV2" voltageLevelId2="VL_B_LD2" bus2="B_LD2" connectableBus2="B_LD2" p1="220.2961081765392" q1="38.88324533038556" p2="-219.9999999987573" q2="-29.999999996925897"/>
    </iidm:substation>
    <iidm:line id="L_A12" r="3.0" x="30.0" g1="0.0" b1="1.5E-4" g2="0.0" b2="1.5E-4" voltageLevelId1="VL_A_HV1" bus1="A_HV1" connectableBus1="A_HV1" voltageLevelId2="VL_A_HV2" bus2="A_HV2" connectableBus2="A_HV2" p1="175.23326458038477" q1="-38.59561462008969" p2="-174.65351966197983" q2="-3.606936195853905"/>
    <iidm:line id="L_A23" r="3.0" x="30.0" g1="0.0" b1="1.5E-4" g2="0.0" b2="1.5E-4" voltageLevelId1="VL_A_HV2" bus1="A_HV2" connectableBus1="A_HV2" voltageLevelId2="VL_A_HV3" bus2="A_HV3" connectableBus2="A_HV3" p1="32.8816313301938" q1="-27.18482642243316" p2="-32.86116861522706" q2="-20.610546427890597"/>
    <iidm:line id="L_A13" r="3.0" x="30.0" g1="0.0" b1="1.5E-4" g2="0.0" b2="1.5E-4" voltageLevelId1="VL_A_HV1" bus1="A_HV1" connectableBus1="A_HV1" voltageLevelId2="VL_A_HV3" bus2="A_HV3" connectableBus2="A_HV3" p1="208.20235866802966" q1="-40.68932742652791" p2="-207.3843569966889" q2="0.8693441399429958"/>
    <iidm:line id="L_B12" r="3.0" x="30.0" g1="0.0" b1="1.5E-4" g2="0.0" b2="1.5E-4" voltageLevelId1="VL_B_HV1" bus1="B_HV1" connectableBus1="B_HV1" voltageLevelId2="VL_B_HV2" bus2="B_HV2" connectableBus2="B_HV2" p1="80.75058711342481" q1="-31.452375226857043" p2="-80.6272834531316" q2="-15.31458817020166"/>
    <iidm:hvdcLine id="HVDC1" r="0.1" nominalV="320.0" convertersMode="SIDE_1_RECTIFIER_SIDE_2_INVERTER" activePowerSetpoint="60.0" maxP="300.0" converterStation1="VSC_A1" converterStation2="VSC_B1"/>
    <iidm:hvdcLine id="HVDC2" r="0.1" nominalV="320.0" convertersMode="SIDE_1_RECTIFIER_SIDE_2_INVERTER" activePowerSetpoint="40.0" maxP="300.0" converterStation1="VSC_A2" converterStation2="VSC_B2"/>
</iidm:network>
